Circuit: * C:\users\federico\Mis Documentos\UBA\Sistemas_Embebidos\TP_FINAL\Placa_de_temperatura\Termistor.asc

WARNING: Less than two connections to node VREF.  This node is used by V2.
Direct Newton iteration failed to find .op point.  (Use ".option noopiter" to skip.)
Starting Gmin stepping
Gmin = 10
Gmin = 1.07374
Gmin = 0.115292
Gmin = 0.0123794
Gmin = 0.00132923
Gmin = 0.000142725
vernier = 0.5
vernier = 0.25
vernier = 0.125
Gmin = 3.74144e-005
vernier = 0.0625
vernier = 0.03125
vernier = 0.015625
vernier = 0.0078125
vernier = 0.00390625
vernier = 0.00195313
vernier = 0.000976563
vernier = 0.000488281
Gmin = 0
Gmin stepping failed

Starting source stepping with srcstepmethod=0
Source Step = 3.0303%
Source Step = 33.3333%
Source Step = 63.6364%
Source Step = 88.6364%
vernier = 0.0625
Source Step = 87.8995%
Source Step = 87.9291%
Source Step = 87.9587%
Source Step = 87.9883%
Source Step = 88.0179%
Source Step = 88.0475%
vernier = 0.00146484
Source Step = 88.0919%
Source Step = 88.1362%
Source Step = 88.1806%
Source Step = 88.225%
Source Step = 88.2694%
vernier = 0.00219727
Source Step = 88.3338%
Source Step = 88.4004%
Source Step = 88.4669%
Source Step = 88.5335%
Source Step = 88.6001%
vernier = 0.0032959
Source Step = 88.6933%
Source Step = 88.7932%
Source Step = 88.8931%
Source Step = 88.993%
Source Step = 89.0928%
vernier = 0.00494385
Source Step = 89.2277%
Source Step = 89.3775%
Source Step = 89.5273%
Source Step = 89.6771%
Source Step = 89.8269%
vernier = 0.00741577
Source Step = 90.0217%
Source Step = 90.1228%
Starting source stepping with srcstepmethod=1
Source Step = 3.0303%
Source Step = 33.3333%
Source Step = 63.6364%
Source Step = 88.6364%
vernier = 0.0625
Source stepping failed

Pseudo Transient succeeded in finding the operating point at 299.561 ms.
Semiconductor Device Operating Points:
                        --- Diodes ---
Name:  d:u1:e_n:2  d:u1:e_n:1  d:u1:i_np:2  d:u1:i_np:1  d:u1:i_nn:2
Model: u1:e_n:dvn  u1:e_n:dvn  u1:i_np:dvnf u1:i_np:dvnf u1:i_nn:dvnf
Id:      1.00e-02    1.00e-02    1.00e-02     1.00e-02     1.00e-02
Vd:      8.34e-01    8.34e-01    8.34e-01     8.34e-01     8.34e-01
Req:     2.59e+00    2.59e+00    2.59e+00     2.59e+00     2.59e+00
CAP:     0.00e+00    0.00e+00    0.00e+00     0.00e+00     0.00e+00

Name:  d:u1:i_nn:1
Model: u1:i_nn:dvnf
Id:      1.00e-02
Vd:      8.34e-01
Req:     2.59e+00
CAP:     0.00e+00



Date: Thu Nov 14 08:11:04 2019
Total elapsed time: 4.797 seconds.

tnom = 27
temp = 27
method = trap
totiter = 9338
traniter = 0
tranpoints = 0
accept = 0
rejected = 9
matrix size = 138
fillins = 166
solver = Normal
Thread vector: 54.2/36.4[2] 0.0/0.0[2] 22.7/15.1[2] 6.6/13.5[1]  2592/500
Matrix Compiler1: off  [24.7]/44.1/44.9
Matrix Compiler2: 14.16 KB object code size  8.9/10.0/[6.6]

